edge_qzw21
  MatStudio         3D                             0

  9  9  0  0  0  0  0  0  0  0999 V2000
   -1.1751   -0.3976    0.0000 N   0  0  0  0  0  0  0  0  0  0
   -0.3009   -1.6169    0.0001 C   0  0  0  0  0  0  0  0  0  0
    1.1568   -1.1357    0.0001 C   0  0  0  0  0  0  0  0  0  0
    1.1786    0.3805    0.0001 N   0  0  0  0  0  0  0  0  0  0
   -0.2769    0.8159    0.0001 C   0  0  0  0  0  0  0  0  0  0
   -0.6542   -2.7006    0.0001 H   0  0  0  0  0  0  0  0  0  0
    2.0756   -1.8104    0.0001 H   0  0  0  0  0  0  0  0  0  0
   -0.6372    1.8974    0.0000 H   0  0  0  0  0  0  0  0  0  0
   -2.2850   -0.3894   -0.0000 H   0  0  0  0  0  0  0  0  0  0
  1  2  4  0  0  0
  1  5  4  0  0  0
  2  3  4  0  0  0
  2  6  1  0  0  0
  3  4  4  0  0  0
  3  7  1  0  0  0
  4  5  4  0  0  0
  8  5  1  0  0  0
  1  9  1  0  0  0
M  END
