edge_qzw56
  MatStudio         3D                             0

 16 17  0  0  0  0  0  0  0  0999 V2000
   -0.3948    0.6498    0.0062 C   0  0  0  0  0  0  0  0  0  0
    0.3738   -0.6534    0.0077 C   0  0  0  0  0  0  0  0  0  0
   -1.8983    0.7057   -0.0011 N   0  0  0  0  0  0  0  0  0  0
   -2.6559   -0.6129   -0.0131 C   0  0  0  0  0  0  0  0  0  0
   -1.8965   -1.9704   -0.0113 C   0  0  0  0  0  0  0  0  0  0
   -0.3517   -1.9995   -0.0010 C   0  0  0  0  0  0  0  0  0  0
   -3.7955   -0.6064   -0.0237 H   0  0  0  0  0  0  0  0  0  0
    2.9611    1.7251    0.0043 H   0  0  0  0  0  0  0  0  0  0
    0.6006    1.7702    0.0050 N   0  0  0  0  0  0  0  0  0  0
    1.9802    1.1452    0.0063 C   0  0  0  0  0  0  0  0  0  0
    1.8621   -0.3744    0.0087 N   0  0  0  0  0  0  0  0  0  0
    0.4095   -3.3032   -0.0018 N   0  0  0  0  0  0  0  0  0  0
   -0.1405   -4.2668   -0.0211 H   0  0  0  0  0  0  0  0  0  0
    1.5193   -3.2976    0.0167 H   0  0  0  0  0  0  0  0  0  0
   -2.4826   -2.9486   -0.0180 H   0  0  0  0  0  0  0  0  0  0
    0.3699    2.8560    0.0014 H   0  0  0  0  0  0  0  0  0  0
  1  2  4  0  0  0
  1  3  4  0  0  0
  2  6  4  0  0  0
  2 11  4  0  0  0
  3  4  4  0  0  0
  4  5  4  0  0  0
  4  7  1  0  0  0
  5  6  4  0  0  0
  9 10  4  0  0  0
  9  1  4  0  0  0
 10 11  4  0  0  0
 10  8  1  0  0  0
 12  6  1  0  0  0
 12 13  1  0  0  0
 12 14  1  0  0  0
 15  5  1  0  0  0
  9 16  1  0  0  0
M  END
