edge_qzw11
  MatStudio         3D                             0

 10 10  0  0  0  0  0  0  0  0999 V2000
   -1.6038   -0.2273    0.0249 N   0  0  0  0  0  0  0  0  0  0
   -0.7587   -1.4593   -0.0241 N   0  0  0  0  0  0  0  0  0  0
    0.6906   -1.0198   -0.0409 C   0  0  0  0  0  0  0  0  0  0
    0.7431    0.4768   -0.0002 N   0  0  0  0  0  0  0  0  0  0
   -0.6721    0.9668    0.0409 C   0  0  0  0  0  0  0  0  0  0
    1.9627    1.3155    0.0001 N   0  0  0  0  0  0  0  0  0  0
    2.9650    0.8377   -0.0612 H   0  0  0  0  0  0  0  0  0  0
    1.8780    2.4162    0.0611 H   0  0  0  0  0  0  0  0  0  0
    1.5931   -1.7138   -0.0752 H   0  0  0  0  0  0  0  0  0  0
   -0.9945    2.0580    0.0750 H   0  0  0  0  0  0  0  0  0  0
  1  2  4  0  0  0
  1  5  4  0  0  0
  2  3  4  0  0  0
  3  4  4  0  0  0
  4  5  4  0  0  0
  6  4  1  0  0  0
  6  7  1  0  0  0
  6  8  1  0  0  0
  3  9  1  0  0  0
  5 10  1  0  0  0
M  END
