edge_qzw14
  MatStudio         3D                             0

  8  8  0  0  0  0  0  0  0  0999 V2000
   -1.5965   -0.2328    0.0000 C   0  0  0  0  0  0  0  0  0  0
   -0.7099   -1.4497    0.0000 N   0  0  0  0  0  0  0  0  0  0
    0.7085   -1.0273    0.0001 N   0  0  0  0  0  0  0  0  0  0
    0.6866    0.4878    0.0001 C   0  0  0  0  0  0  0  0  0  0
   -0.7359    1.0041   -0.0000 N   0  0  0  0  0  0  0  0  0  0
    1.6142    1.1480    0.0002 H   0  0  0  0  0  0  0  0  0  0
   -2.7343   -0.2453    0.0001 H   0  0  0  0  0  0  0  0  0  0
   -1.0653   -2.5006    0.0001 H   0  0  0  0  0  0  0  0  0  0
  1  2  4  0  0  0
  1  5  4  0  0  0
  2  3  4  0  0  0
  3  4  4  0  0  0
  4  5  4  0  0  0
  4  6  1  0  0  0
  1  7  1  0  0  0
  2  8  1  0  0  0
M  END
