edge_qzw38
  MatStudio         3D                             0

 17 18  0  0  0  0  0  0  0  0999 V2000
   -0.3790    0.6633    0.0001 C   0  0  0  0  0  0  0  0  0  0
    0.3856   -0.6705    0.0001 C   0  0  0  0  0  0  0  0  0  0
    1.9232   -0.6614    0.0001 C   0  0  0  0  0  0  0  0  0  0
    2.6777    0.6813    0.0003 C   0  0  0  0  0  0  0  0  0  0
    1.9115    1.9854    0.0002 N   0  0  0  0  0  0  0  0  0  0
    0.3997    1.9913    0.0000 C   0  0  0  0  0  0  0  0  0  0
   -1.9183    0.6692    0.0001 C   0  0  0  0  0  0  0  0  0  0
   -2.6918   -0.6624    0.0001 C   0  0  0  0  0  0  0  0  0  0
   -1.9255   -1.9986    0.0000 C   0  0  0  0  0  0  0  0  0  0
   -0.3855   -2.0032    0.0000 C   0  0  0  0  0  0  0  0  0  0
    3.8177    0.6924    0.0004 H   0  0  0  0  0  0  0  0  0  0
   -3.8317   -0.6591    0.0002 H   0  0  0  0  0  0  0  0  0  0
   -2.4985   -2.9842   -0.0000 H   0  0  0  0  0  0  0  0  0  0
    2.5020   -1.6441    0.0001 H   0  0  0  0  0  0  0  0  0  0
   -0.1652    2.9818   -0.0001 H   0  0  0  0  0  0  0  0  0  0
   -2.4849    1.6583    0.0002 H   0  0  0  0  0  0  0  0  0  0
    0.1825   -2.9915   -0.0000 H   0  0  0  0  0  0  0  0  0  0
  1  2  4  0  0  0
  1  6  4  0  0  0
  1  7  4  0  0  0
  2  3  4  0  0  0
  2 10  4  0  0  0
  3  4  4  0  0  0
  4  5  4  0  0  0
  4 11  1  0  0  0
  5  6  4  0  0  0
  7  8  4  0  0  0
  8  9  4  0  0  0
  8 12  1  0  0  0
  9 10  4  0  0  0
  9 13  1  0  0  0
 14  3  1  0  0  0
 15  6  1  0  0  0
  7 16  1  0  0  0
 10 17  1  0  0  0
M  END
