edge_qzw36
  MatStudio         3D                             0

 20 21  0  0  0  0  0  0  0  0999 V2000
   -0.3735    0.6683    0.0006 C   0  0  0  0  0  0  0  0  0  0
    0.3866   -0.6717    0.0023 C   0  0  0  0  0  0  0  0  0  0
    1.9245   -0.6746    0.0022 C   0  0  0  0  0  0  0  0  0  0
    2.6819    0.6648    0.0003 C   0  0  0  0  0  0  0  0  0  0
    1.8945    1.9894   -0.0001 C   0  0  0  0  0  0  0  0  0  0
    0.3837    1.9756   -0.0007 N   0  0  0  0  0  0  0  0  0  0
   -1.9124    0.6803    0.0036 C   0  0  0  0  0  0  0  0  0  0
   -2.6921   -0.6464    0.0006 C   0  0  0  0  0  0  0  0  0  0
   -1.9320   -1.9860   -0.0260 C   0  0  0  0  0  0  0  0  0  0
   -0.3923   -2.0000    0.0011 C   0  0  0  0  0  0  0  0  0  0
    2.4529    2.9831   -0.0001 H   0  0  0  0  0  0  0  0  0  0
   -3.8317   -0.6373    0.0178 H   0  0  0  0  0  0  0  0  0  0
    2.4979   -1.6599    0.0015 H   0  0  0  0  0  0  0  0  0  0
   -2.4741    1.6717    0.0107 H   0  0  0  0  0  0  0  0  0  0
    0.1693   -2.9920    0.0178 H   0  0  0  0  0  0  0  0  0  0
   -2.7095   -3.3140    0.0038 C   0  0  0  0  0  0  0  0  0  0
   -2.1050   -4.0853    0.5859 H   0  0  0  0  0  0  0  0  0  0
   -2.8724   -3.6859   -1.0614 H   0  0  0  0  0  0  0  0  0  0
   -3.7176   -3.1578    0.5126 H   0  0  0  0  0  0  0  0  0  0
    3.8219    0.6774   -0.0006 H   0  0  0  0  0  0  0  0  0  0
  1  2  4  0  0  0
  1  6  4  0  0  0
  1  7  4  0  0  0
  2  3  4  0  0  0
  2 10  4  0  0  0
  3  4  4  0  0  0
  3 13  1  0  0  0
  4  5  4  0  0  0
  5 11  1  0  0  0
  5  6  4  0  0  0
  7  8  4  0  0  0
  7 14  1  0  0  0
  8  9  4  0  0  0
  9 10  4  0  0  0
 10 15  1  0  0  0
 12  8  1  0  0  0
 16  9  1  0  0  0
 16 17  1  0  0  0
 16 18  1  0  0  0
 16 19  1  0  0  0
  4 20  1  0  0  0
M  END
