edge_qzw45
  MatStudio         3D                             0

 15 16  0  0  0  0  0  0  0  0999 V2000
   -0.3722    0.6555    0.0001 C   0  0  0  0  0  0  0  0  0  0
    0.3767   -0.6589    0.0001 C   0  0  0  0  0  0  0  0  0  0
   -1.9038    0.7017    0.0001 C   0  0  0  0  0  0  0  0  0  0
   -2.6677   -0.6452    0.0001 C   0  0  0  0  0  0  0  0  0  0
   -1.8928   -1.9940    0.0002 C   0  0  0  0  0  0  0  0  0  0
   -0.3455   -2.0091    0.0001 C   0  0  0  0  0  0  0  0  0  0
   -3.8077   -0.6484    0.0001 H   0  0  0  0  0  0  0  0  0  0
   -2.4686   -2.9779    0.0002 H   0  0  0  0  0  0  0  0  0  0
    0.6129    1.8058    0.0001 N   0  0  0  0  0  0  0  0  0  0
    1.9894    1.1505    0.0001 C   0  0  0  0  0  0  0  0  0  0
    1.8439   -0.3568    0.0001 N   0  0  0  0  0  0  0  0  0  0
    2.9814    1.7122    0.0001 H   0  0  0  0  0  0  0  0  0  0
   -2.4627    1.6953    0.0001 H   0  0  0  0  0  0  0  0  0  0
    0.2357   -2.9898    0.0001 H   0  0  0  0  0  0  0  0  0  0
    2.6696   -1.0987    0.0001 H   0  0  0  0  0  0  0  0  0  0
  1  2  4  0  0  0
  1  3  4  0  0  0
  2  6  4  0  0  0
  2 11  4  0  0  0
  3  4  4  0  0  0
  4  5  4  0  0  0
  4  7  1  0  0  0
  5  6  4  0  0  0
  5  8  1  0  0  0
  9 10  4  0  0  0
  9  1  4  0  0  0
 10 11  4  0  0  0
 10 12  1  0  0  0
 13  3  1  0  0  0
 14  6  1  0  0  0
 11 15  1  0  0  0
M  END
