edge_qzw43
  MatStudio         3D                             0

 20 22  0  0  0  0  0  0  0  0999 V2000
   -0.4144    0.6464    0.0001 C   0  0  0  0  0  0  0  0  0  0
    0.3505   -0.6768    0.0002 C   0  0  0  0  0  0  0  0  0  0
   -1.9516    0.7119    0.0000 C   0  0  0  0  0  0  0  0  0  0
   -2.6623   -0.6528    0.0000 C   0  0  0  0  0  0  0  0  0  0
   -1.8977   -1.9762    0.0001 C   0  0  0  0  0  0  0  0  0  0
   -0.3602   -2.0418    0.0002 C   0  0  0  0  0  0  0  0  0  0
    0.6136    1.7865    0.0000 C   0  0  0  0  0  0  0  0  0  0
    1.9970    1.1581    0.0001 N   0  0  0  0  0  0  0  0  0  0
    1.8516   -0.3544    0.0002 C   0  0  0  0  0  0  0  0  0  0
   -4.1633   -0.9743   -0.0000 C   0  0  0  0  0  0  0  0  0  0
   -4.3095   -2.4866   -0.0001 N   0  0  0  0  0  0  0  0  0  0
   -2.9265   -3.1158    0.0000 C   0  0  0  0  0  0  0  0  0  0
    0.3021    3.2639   -0.0002 O   0  0  0  0  0  0  0  0  0  0
    2.9769   -1.3611    0.0004 O   0  0  0  0  0  0  0  0  0  0
   -5.2877    0.0333   -0.0000 O   0  0  0  0  0  0  0  0  0  0
   -2.6163   -4.5935   -0.0000 O   0  0  0  0  0  0  0  0  0  0
   -2.5220    1.6988    0.0000 H   0  0  0  0  0  0  0  0  0  0
    0.2102   -3.0287    0.0002 H   0  0  0  0  0  0  0  0  0  0
    2.9579    1.7137    0.0001 H   0  0  0  0  0  0  0  0  0  0
   -5.2707   -3.0417   -0.0001 H   0  0  0  0  0  0  0  0  0  0
  1  2  4  0  0  0
  1  3  4  0  0  0
  1  7  4  0  0  0
  2  6  4  0  0  0
  2  9  4  0  0  0
  3  4  4  0  0  0
  3 17  1  0  0  0
  4  5  4  0  0  0
  4 10  4  0  0  0
  5  6  4  0  0  0
  5 12  4  0  0  0
  6 18  1  0  0  0
  7  8  4  0  0  0
  7 13  2  0  0  0
  8  9  4  0  0  0
  9 14  2  0  0  0
 10 11  4  0  0  0
 10 15  2  0  0  0
 11 12  4  0  0  0
 12 16  2  0  0  0
  8 19  1  0  0  0
 11 20  1  0  0  0
M  END
