edge_qzw61
  MatStudio         3D                             0

 20 22  0  0  0  0  0  0  0  0999 V2000
    2.9508    0.0290   -0.7208 C   0  0  0  0  0  0  0  0  0  0
    3.6915   -1.2759   -0.8877 N   0  0  0  0  0  0  0  0  0  0
    5.1647   -1.2765   -1.0254 N   0  0  0  0  0  0  0  0  0  0
    5.9245    0.0280   -1.0003 C   0  0  0  0  0  0  0  0  0  0
    5.1829    1.3335   -0.8418 N   0  0  0  0  0  0  0  0  0  0
    3.7097    1.3341   -0.7041 N   0  0  0  0  0  0  0  0  0  0
    1.4228    0.0272   -0.5444 C   0  0  0  0  0  0  0  0  0  0
    0.6853    1.3310   -0.3545 N   0  0  0  0  0  0  0  0  0  0
   -0.7742    1.3244   -0.1159 N   0  0  0  0  0  0  0  0  0  0
   -1.5221    0.0139   -0.0620 C   0  0  0  0  0  0  0  0  0  0
   -0.7924   -1.2866   -0.2990 N   0  0  0  0  0  0  0  0  0  0
    0.6671   -1.2801   -0.5377 N   0  0  0  0  0  0  0  0  0  0
   -3.0263    0.0021    0.2590 C   0  0  0  0  0  0  0  0  0  0
   -3.7699   -1.3095    0.3354 N   0  0  0  0  0  0  0  0  0  0
   -5.2098   -1.3232    0.6754 N   0  0  0  0  0  0  0  0  0  0
   -5.9332   -0.0254    0.9439 C   0  0  0  0  0  0  0  0  0  0
   -5.1916    1.2869    0.8582 N   0  0  0  0  0  0  0  0  0  0
   -3.7515    1.3006    0.5187 N   0  0  0  0  0  0  0  0  0  0
    7.0644    0.0272   -1.1024 H   0  0  0  0  0  0  0  0  0  0
   -7.0455   -0.0364    1.2118 H   0  0  0  0  0  0  0  0  0  0
  1  2  4  0  0  0
  1  6  4  0  0  0
  1  7  1  0  0  0
  2  3  4  0  0  0
  3  4  4  0  0  0
  4  5  4  0  0  0
  5  6  4  0  0  0
  7  8  4  0  0  0
  7 12  4  0  0  0
  8  9  4  0  0  0
  9 10  4  0  0  0
 10 11  4  0  0  0
 10 13  1  0  0  0
 11 12  4  0  0  0
 13 14  4  0  0  0
 13 18  4  0  0  0
 14 15  4  0  0  0
 15 16  4  0  0  0
 16 17  4  0  0  0
 17 18  4  0  0  0
  4 19  1  0  0  0
 16 20  1  0  0  0
M  END
