edge_qzw28
  MatStudio         3D                             0

  8  8  0  0  0  0  0  0  0  0999 V2000
   -1.5028    0.0130   -0.0000 N   0  0  0  0  0  0  0  0  0  0
   -0.7473   -1.2942    0.0001 C   0  0  0  0  0  0  0  0  0  0
    0.7625   -1.2949    0.0003 N   0  0  0  0  0  0  0  0  0  0
    1.5025   -0.0132    0.0003 N   0  0  0  0  0  0  0  0  0  0
    0.7470    1.2940    0.0001 C   0  0  0  0  0  0  0  0  0  0
   -0.7629    1.2946   -0.0001 N   0  0  0  0  0  0  0  0  0  0
   -1.3184   -2.2835   -0.0000 H   0  0  0  0  0  0  0  0  0  0
    1.3180    2.2830    0.0001 H   0  0  0  0  0  0  0  0  0  0
  1  2  4  0  0  0
  1  6  4  0  0  0
  2  3  4  0  0  0
  3  4  4  0  0  0
  4  5  4  0  0  0
  5  6  4  0  0  0
  2  7  1  0  0  0
  5  8  1  0  0  0
M  END
