edge_qzw59
  MatStudio         3D                             0

 16 17  0  0  0  0  0  0  0  0999 V2000
  -19.4443  -16.7134   -0.0006 N   0  0  0  0  0  0  0  0  0  0
  -18.7518  -18.0554    0.0021 C   0  0  0  0  0  0  0  0  0  0
  -17.2433  -18.1261    0.0045 N   0  0  0  0  0  0  0  0  0  0
  -16.4438  -16.8805    0.0043 N   0  0  0  0  0  0  0  0  0  0
  -17.1367  -15.5391    0.0016 C   0  0  0  0  0  0  0  0  0  0
  -18.6448  -15.4677   -0.0009 N   0  0  0  0  0  0  0  0  0  0
  -19.5839  -19.3519    0.0026 C   0  0  0  0  0  0  0  0  0  0
  -20.4161  -20.6484    0.0024 C   0  0  0  0  0  0  0  0  0  0
  -21.2483  -21.9448    0.0015 C   0  0  0  0  0  0  0  0  0  0
  -20.5560  -23.2869    0.0055 N   0  0  0  0  0  0  0  0  0  0
  -21.3557  -24.5324    0.0042 N   0  0  0  0  0  0  0  0  0  0
  -22.8637  -24.4608   -0.0012 C   0  0  0  0  0  0  0  0  0  0
  -23.5565  -23.1195   -0.0048 N   0  0  0  0  0  0  0  0  0  0
  -22.7568  -21.8739   -0.0036 N   0  0  0  0  0  0  0  0  0  0
  -16.5196  -14.5776    0.0015 H   0  0  0  0  0  0  0  0  0  0
  -23.4812  -25.4227   -0.0025 H   0  0  0  0  0  0  0  0  0  0
  1  2  4  0  0  0
  1  6  4  0  0  0
  2  3  4  0  0  0
  2  7  1  0  0  0
  3  4  4  0  0  0
  4  5  4  0  0  0
  5  6  4  0  0  0
  7  8  3  0  0  0
  8  9  1  0  0  0
  9 10  4  0  0  0
  9 14  4  0  0  0
 10 11  4  0  0  0
 11 12  4  0  0  0
 12 13  4  0  0  0
 13 14  4  0  0  0
  5 15  1  0  0  0
 12 16  1  0  0  0
M  END
