edge_qzw3
  MatStudio         3D                             0

 10 10  0  0  0  0  0  0  0  0999 V2000
   -1.5071   -0.0134    0.0000 N   0  0  0  0  0  0  0  0  0  0
   -0.7651   -1.2985   -0.0000 N   0  0  0  0  0  0  0  0  0  0
    0.7468   -1.3221    0.0002 C   0  0  0  0  0  0  0  0  0  0
    1.5343   -0.0009    0.0002 C   0  0  0  0  0  0  0  0  0  0
    0.7664    1.3292    0.0001 C   0  0  0  0  0  0  0  0  0  0
   -0.7716    1.3077    0.0000 C   0  0  0  0  0  0  0  0  0  0
    1.3017   -2.3167    0.0003 H   0  0  0  0  0  0  0  0  0  0
    2.6742   -0.0089    0.0003 H   0  0  0  0  0  0  0  0  0  0
   -1.3555    2.2856   -0.0000 H   0  0  0  0  0  0  0  0  0  0
    1.3293    2.3203    0.0001 H   0  0  0  0  0  0  0  0  0  0
  1  2  4  0  0  0
  1  6  4  0  0  0
  2  3  4  0  0  0
  3  4  4  0  0  0
  3  7  1  0  0  0
  4  5  4  0  0  0
  4  8  1  0  0  0
  5  6  4  0  0  0
  6  9  1  0  0  0
  5 10  1  0  0  0
M  END
