edge_qzw57
  MatStudio         3D                             0

 12 12  0  0  0  0  0  0  0  0999 V2000
   -1.4945   -0.0029   -0.0004 C   0  0  0  0  0  0  0  0  0  0
   -0.7302   -1.3043   -0.0004 N   0  0  0  0  0  0  0  0  0  0
    0.7495   -1.2935   -0.0003 N   0  0  0  0  0  0  0  0  0  0
    1.4949    0.0198   -0.0002 C   0  0  0  0  0  0  0  0  0  0
    0.7307    1.3222   -0.0003 N   0  0  0  0  0  0  0  0  0  0
   -0.7494    1.3113   -0.0005 N   0  0  0  0  0  0  0  0  0  0
   -3.0347   -0.0145   -0.0001 C   0  0  0  0  0  0  0  0  0  0
   -4.5737   -0.0269    0.0004 C   0  0  0  0  0  0  0  0  0  0
    3.0349    0.0277   -0.0002 C   0  0  0  0  0  0  0  0  0  0
    4.5745    0.0311   -0.0002 C   0  0  0  0  0  0  0  0  0  0
   -5.7183   -0.0367    0.0007 H   0  0  0  0  0  0  0  0  0  0
    5.7164    0.0332   -0.0002 H   0  0  0  0  0  0  0  0  0  0
  1  2  4  0  0  0
  1  6  4  0  0  0
  1  7  1  0  0  0
  2  3  4  0  0  0
  3  4  4  0  0  0
  4  5  4  0  0  0
  4  9  1  0  0  0
  5  6  4  0  0  0
  7  8  3  0  0  0
  9 10  3  0  0  0
  8 11  1  0  0  0
 10 12  1  0  0  0
M  END
