edge_qzw15
  MatStudio         3D                             0

  8  8  0  0  0  0  0  0  0  0999 V2000
   -1.5981   -0.2644    0.0000 N   0  0  0  0  0  0  0  0  0  0
   -0.7490   -1.4767   -0.0000 N   0  0  0  0  0  0  0  0  0  0
    0.6816   -0.9773    0.0001 C   0  0  0  0  0  0  0  0  0  0
    0.7218    0.5354    0.0002 N   0  0  0  0  0  0  0  0  0  0
   -0.7236    0.9609    0.0001 C   0  0  0  0  0  0  0  0  0  0
   -2.7071   -0.2594    0.0001 H   0  0  0  0  0  0  0  0  0  0
    1.6010   -1.6487    0.0002 H   0  0  0  0  0  0  0  0  0  0
   -1.0955    2.0382    0.0001 H   0  0  0  0  0  0  0  0  0  0
  1  2  4  0  0  0
  1  5  4  0  0  0
  2  3  4  0  0  0
  3  4  4  0  0  0
  4  5  4  0  0  0
  1  6  1  0  0  0
  3  7  1  0  0  0
  5  8  1  0  0  0
M  END
