edge_qzw44
  MatStudio         3D                             0

 14 15  0  0  0  0  0  0  0  0999 V2000
    0.7699    0.0146    0.0007 C   0  0  0  0  0  0  0  0  0  0
    1.5483   -1.2793    0.0005 N   0  0  0  0  0  0  0  0  0  0
    3.0282   -1.2530    0.0005 N   0  0  0  0  0  0  0  0  0  0
    3.7606    0.0676    0.0005 C   0  0  0  0  0  0  0  0  0  0
    2.9818    1.3615    0.0005 N   0  0  0  0  0  0  0  0  0  0
    1.5019    1.3352    0.0006 N   0  0  0  0  0  0  0  0  0  0
   -0.7703   -0.0128    0.0007 C   0  0  0  0  0  0  0  0  0  0
   -1.5488    1.2810    0.0009 N   0  0  0  0  0  0  0  0  0  0
   -3.0287    1.2546    0.0004 N   0  0  0  0  0  0  0  0  0  0
   -3.7609   -0.0661   -0.0002 C   0  0  0  0  0  0  0  0  0  0
   -2.9822   -1.3598   -0.0000 N   0  0  0  0  0  0  0  0  0  0
   -1.5023   -1.3335    0.0005 N   0  0  0  0  0  0  0  0  0  0
    4.8980    0.0878    0.0005 H   0  0  0  0  0  0  0  0  0  0
   -4.8986   -0.0863   -0.0007 H   0  0  0  0  0  0  0  0  0  0
  1  2  4  0  0  0
  1  6  4  0  0  0
  1  7  1  0  0  0
  2  3  4  0  0  0
  3  4  4  0  0  0
  4  5  4  0  0  0
  5  6  4  0  0  0
  7  8  4  0  0  0
  7 12  4  0  0  0
  8  9  4  0  0  0
  9 10  4  0  0  0
 10 11  4  0  0  0
 11 12  4  0  0  0
  4 13  1  0  0  0
 10 14  1  0  0  0
M  END
